# generated using pymatgen
data_B50AuN48
_symmetry_space_group_name_H-M   'P 1'
_cell_length_a   12.56214228
_cell_length_b   12.56214228
_cell_length_c   7.70726500
_cell_angle_alpha   90.00000000
_cell_angle_beta   90.00000000
_cell_angle_gamma   120.00001201
_symmetry_Int_Tables_number   1
_chemical_formula_structural   B50AuN48
_chemical_formula_sum   'B50 Au1 N48'
_cell_volume   1053.31504331
_cell_formula_units_Z   1
loop_
 _symmetry_equiv_pos_site_id
 _symmetry_equiv_pos_as_xyz
  1  'x, y, z'
loop_
 _atom_site_type_symbol
 _atom_site_label
 _atom_site_symmetry_multiplicity
 _atom_site_fract_x
 _atom_site_fract_y
 _atom_site_fract_z
 _atom_site_occupancy
  B  B0  1  0.066667  0.133333  0.250000  1
  B  B1  1  0.066667  0.333333  0.250000  1
  B  B2  1  0.066667  0.533333  0.250000  1
  B  B3  1  0.066667  0.733333  0.250000  1
  B  B4  1  0.066667  0.933333  0.250000  1
  B  B5  1  0.266667  0.133333  0.250000  1
  B  B6  1  0.266667  0.333333  0.250000  1
  B  B7  1  0.266667  0.533333  0.250000  1
  B  B8  1  0.266667  0.733333  0.250000  1
  B  B9  1  0.266667  0.933333  0.250000  1
  B  B10  1  0.466667  0.133333  0.250000  1
  B  B11  1  0.466667  0.333333  0.250000  1
  B  B12  1  0.466667  0.533333  0.250000  1
  B  B13  1  0.466667  0.733333  0.250000  1
  B  B14  1  0.466667  0.933333  0.250000  1
  B  B15  1  0.666667  0.133333  0.250000  1
  B  B16  1  0.666667  0.333333  0.250000  1
  B  B17  1  0.666667  0.533333  0.250000  1
  B  B18  1  0.666667  0.733333  0.250000  1
  B  B19  1  0.666667  0.933333  0.250000  1
  B  B20  1  0.866667  0.133333  0.250000  1
  B  B21  1  0.866667  0.333333  0.250000  1
  B  B22  1  0.866667  0.533333  0.250000  1
  B  B23  1  0.866667  0.733333  0.250000  1
  B  B24  1  0.866667  0.933333  0.250000  1
  B  B25  1  0.133333  0.066667  0.750000  1
  B  B26  1  0.133333  0.266667  0.750000  1
  B  B27  1  0.133333  0.466667  0.750000  1
  B  B28  1  0.133333  0.666667  0.750000  1
  B  B29  1  0.133333  0.866667  0.750000  1
  B  B30  1  0.333333  0.066667  0.750000  1
  B  B31  1  0.333333  0.266667  0.750000  1
  B  B32  1  0.333333  0.466667  0.750000  1
  B  B33  1  0.333333  0.666667  0.750000  1
  B  B34  1  0.333333  0.866667  0.750000  1
  B  B35  1  0.533333  0.066667  0.750000  1
  B  B36  1  0.533333  0.266667  0.750000  1
  B  B37  1  0.533333  0.466667  0.750000  1
  B  B38  1  0.533333  0.666667  0.750000  1
  B  B39  1  0.533333  0.866667  0.750000  1
  B  B40  1  0.733333  0.066667  0.750000  1
  B  B41  1  0.733333  0.266667  0.750000  1
  B  B42  1  0.733333  0.466667  0.750000  1
  B  B43  1  0.733333  0.666667  0.750000  1
  B  B44  1  0.733333  0.866667  0.750000  1
  B  B45  1  0.933333  0.066667  0.750000  1
  B  B46  1  0.933333  0.266667  0.750000  1
  B  B47  1  0.933333  0.466667  0.750000  1
  B  B48  1  0.933333  0.666667  0.750000  1
  B  B49  1  0.933333  0.866667  0.750000  1
  N  N50  1  0.066667  0.333333  0.750000  1
  N  N51  1  0.066667  0.533333  0.750000  1
  N  N52  1  0.066667  0.733333  0.750000  1
  N  N53  1  0.066667  0.933333  0.750000  1
  N  N54  1  0.266667  0.133333  0.750000  1
  N  N55  1  0.266667  0.533333  0.750000  1
  N  N56  1  0.266667  0.733333  0.750000  1
  N  N57  1  0.266667  0.933333  0.750000  1
  N  N58  1  0.466667  0.133333  0.750000  1
  N  N59  1  0.466667  0.333333  0.750000  1
  N  N60  1  0.466667  0.533333  0.750000  1
  N  N61  1  0.466667  0.733333  0.750000  1
  N  N62  1  0.466667  0.933333  0.750000  1
  N  N63  1  0.666667  0.133333  0.750000  1
  N  N64  1  0.666667  0.333333  0.750000  1
  N  N65  1  0.666667  0.533333  0.750000  1
  N  N66  1  0.666667  0.733333  0.750000  1
  N  N67  1  0.666667  0.933333  0.750000  1
  N  N68  1  0.866667  0.133333  0.750000  1
  N  N69  1  0.866667  0.333333  0.750000  1
  N  N70  1  0.866667  0.533333  0.750000  1
  N  N71  1  0.866667  0.733333  0.750000  1
  N  N72  1  0.866667  0.933333  0.750000  1
  N  N73  1  0.133333  0.066667  0.250000  1
  N  N74  1  0.133333  0.266667  0.250000  1
  N  N75  1  0.133333  0.466667  0.250000  1
  N  N76  1  0.133333  0.666667  0.250000  1
  N  N77  1  0.133333  0.866667  0.250000  1
  N  N78  1  0.333333  0.066667  0.250000  1
  N  N79  1  0.333333  0.266667  0.250000  1
  N  N80  1  0.333333  0.466667  0.250000  1
  N  N81  1  0.333333  0.666667  0.250000  1
  N  N82  1  0.333333  0.866667  0.250000  1
  N  N83  1  0.533333  0.066667  0.250000  1
  N  N84  1  0.533333  0.266667  0.250000  1
  N  N85  1  0.533333  0.466667  0.250000  1
  N  N86  1  0.533333  0.666667  0.250000  1
  N  N87  1  0.533333  0.866667  0.250000  1
  N  N88  1  0.733333  0.066667  0.250000  1
  N  N89  1  0.733333  0.266667  0.250000  1
  N  N90  1  0.733333  0.466667  0.250000  1
  N  N91  1  0.733333  0.666667  0.250000  1
  N  N92  1  0.733333  0.866667  0.250000  1
  N  N93  1  0.933333  0.066667  0.250000  1
  N  N94  1  0.933333  0.266667  0.250000  1
  N  N95  1  0.933333  0.466667  0.250000  1
  N  N96  1  0.933333  0.666667  0.250000  1
  N  N97  1  0.933333  0.866667  0.250000  1
  Au  Au98  1  0.266667  0.333333  0.750000  1
